
**** 04/05/25 22:16:54 **** PSpice 23.1.0 (30 January 2024) *** ID# 0 ********

 ** Profile: "SCHEMATIC1-StrainResponse"  [ d:\users\jerryg\projects\pspice_practice\first_ws\StrainGuage_Amp\StrainGuage_Amp-PSpiceF


 ****     CIRCUIT DESCRIPTION


******************************************************************************




** Creating circuit file "StrainResponse.cir" 
** WARNING: THIS AUTOMATICALLY GENERATED FILE MAY BE OVERWRITTEN BY SUBSEQUENT SIMULATIONS

*Libraries: 
* Profile Libraries :
* Local Libraries :
* From [PSPICE NETLIST] section of C:\cds_spb_home\cdssetup\OrCAD_PSpiceTIPSpice_Install\23.1.0\PSpice.ini file:
.lib "nom_pspti.lib" 
.lib "nom.lib" 

*Analysis directives: 
.DC LIN PARAM Rgauge 315 385 5 
.OPTIONS ADVCONV
.OPTIONS FILEMODELSEARCH
.PROBE64 V(alias(*)) I(alias(*)) W(alias(*)) D(alias(*)) NOISE(alias(*)) 
.INC "..\SCHEMATIC1.net" 



**** INCLUDING SCHEMATIC1.net ****
* source STRAINGUAGE_AMP
R_R1         VSIG+ VREF  350 TC=0,0 
R_R2         VSIG- VREF  350 TC=0,0 
R_R3         0 VSIG+  350 TC=0,0 
R_R4         0 VSIG-  {Rgauge} TC=0,0 
X_U1         VSIG+ VSIG- VREF 0 N00824 2.5V N00913 N00917 INA333
V_Vref         VREF 0 5Vdc
R_R5         N00913 N00917  2.56K TC=0,0 
X_U2         N01230 2.5V 0 VREF N01527 OPA336
R_R6         VREF 2.5V  10k TC=0,0 
R_R7         2.5V 0  10k TC=0,0 
R_R8         2.5V N01527  10k TC=0,0 
R_R9         N00824 N01230  10k TC=0,0 
R_R10         0 N01527  10k TC=0,0 
.PARAM  rgauge=350

**** RESUMING StrainResponse.cir ****
.END

**** 04/05/25 22:16:54 **** PSpice 23.1.0 (30 January 2024) *** ID# 0 ********

 ** Profile: "SCHEMATIC1-StrainResponse"  [ d:\users\jerryg\projects\pspice_practice\first_ws\StrainGuage_Amp\StrainGuage_Amp-PSpiceF


 ****     Diode MODEL PARAMETERS


******************************************************************************




               X_U2.Xe_n.DVN   
          IS  100.000000E-18 
          KF   10.000000E-12 


**** 04/05/25 22:16:54 **** PSpice 23.1.0 (30 January 2024) *** ID# 0 ********

 ** Profile: "SCHEMATIC1-StrainResponse"  [ d:\users\jerryg\projects\pspice_practice\first_ws\StrainGuage_Amp\StrainGuage_Amp-PSpiceF


 ****     Resistor MODEL PARAMETERS


******************************************************************************




               X_U1.R_NOISELESS 
  T_Measured   27            
   T_Current -273.15         
           R    1            


               X_U2.R_NOISELESS 
  T_Measured   27            
   T_Current -273.15         
           R    1            


               X_U1.XA1.R_NOISELESS 
  T_Measured   27            
   T_Current -273.15         
           R    1            


               X_U1.XA2.R_NOISELESS 
  T_Measured   27            
   T_Current -273.15         
           R    1            


               X_U1.XA3.R_NOISELESS 
  T_Measured   27            
   T_Current -273.15         
           R    1            


               X_U2.XU4.R_NOISELESS 
  T_Measured   27            
   T_Current -273.15         
           R    1            


               X_U2.XU3.R_NOISELESS 
  T_Measured   27            
   T_Current -273.15         
           R    1            


               X_U2.XU2.R_NOISELESS 
  T_Measured   27            
   T_Current -273.15         
           R    1            


               X_U2.XU1.R_NOISELESS 
  T_Measured   27            
   T_Current -273.15         
           R    1            


               X_U1.XA1.XU1.R_NOISELESS 
  T_Measured   27            
   T_Current -273.15         
           R    1            


               X_U1.XA1.XU2.R_NOISELESS 
  T_Measured   27            
   T_Current -273.15         
           R    1            


               X_U1.XA1.XU3.R_NOISELESS 
  T_Measured   27            
   T_Current -273.15         
           R    1            


               X_U1.XA2.XU1.R_NOISELESS 
  T_Measured   27            
   T_Current -273.15         
           R    1            


               X_U1.XA2.XU2.R_NOISELESS 
  T_Measured   27            
   T_Current -273.15         
           R    1            


               X_U1.XA2.XU3.R_NOISELESS 
  T_Measured   27            
   T_Current -273.15         
           R    1            


               X_U1.XA3.XU1.R_NOISELESS 
  T_Measured   27            
   T_Current -273.15         
           R    1            


               X_U1.XA3.XU2.R_NOISELESS 
  T_Measured   27            
   T_Current -273.15         
           R    1            


               X_U1.XA3.XU3.R_NOISELESS 
  T_Measured   27            
   T_Current -273.15         
           R    1            


**** 04/05/25 22:16:54 **** PSpice 23.1.0 (30 January 2024) *** ID# 0 ********

 ** Profile: "SCHEMATIC1-StrainResponse"  [ d:\users\jerryg\projects\pspice_practice\first_ws\StrainGuage_Amp\StrainGuage_Amp-PSpiceF


 ****     Voltage Controlled Switch MODEL PARAMETERS


******************************************************************************




               X_U2.S_VSWITCH_1 
         RON     .01         
        ROFF    1.000000E+09 
         VON     .01         
        VOFF    0            


               X_U2.S_VSWITCH_3 
         RON    1.000000E-03 
        ROFF    1.000000E+09 
         VON     .9          
        VOFF     .8          


               X_U2.S_VSWITCH_4 
         RON   50            
        ROFF    1.000000E+12 
         VON     .5          
        VOFF     .45         


               X_U1.XA1.S_VSWITCH_1 
         RON    1.000000E-03 
        ROFF    1.000000E+09 
         VON     .9          
        VOFF     .8          


               X_U1.XA2.S_VSWITCH_1 
         RON    1.000000E-03 
        ROFF    1.000000E+09 
         VON     .9          
        VOFF     .8          


               X_U1.XA3.S_VSWITCH_1 
         RON   50            
        ROFF    1.000000E+12 
         VON     .5          
        VOFF     .45         


               X_U1.XA3.S_VSWITCH_2 
         RON    1.000000E-03 
        ROFF    1.000000E+09 
         VON     .9          
        VOFF     .8          


               X_U1.XA3.S_VSWITCH_3 
         RON     .01         
        ROFF    1.000000E+09 
         VON     .01         
        VOFF    0            


               X_U2.XU5.S_VSWITCH_1 
         RON   50            
        ROFF    1.000000E+12 
         VON     .5          
        VOFF     .45         


               X_U1.XA1.XU5.S_VSWITCH_1 
         RON   50            
        ROFF    1.000000E+12 
         VON     .7          
        VOFF     .6          


               X_U1.XA1.XU5.S_VSWITCH_2 
         RON   50            
        ROFF    1.000000E+12 
         VON     .5          
        VOFF     .45         


               X_U1.XA2.XU5.S_VSWITCH_1 
         RON   50            
        ROFF    1.000000E+12 
         VON     .7          
        VOFF     .6          


               X_U1.XA2.XU5.S_VSWITCH_2 
         RON   50            
        ROFF    1.000000E+12 
         VON     .5          
        VOFF     .45         


               X_U1.XA3.XU5.S_VSWITCH_1 
         RON   50            
        ROFF    1.000000E+12 
         VON     .7          
        VOFF     .6          


               X_U1.XA3.XU5.S_VSWITCH_2 
         RON   50            
        ROFF    1.000000E+12 
         VON     .5          
        VOFF     .45         


Model-Specific Temperatures During Sweep  Param value = 315

 **** RESISTORS

               X_U1.R1 <X_U1.R_NOISELESS> (T_Current -273.15 T_Measured 27)
                              X_U1.R2 <X_U1.R_NOISELESS> (T_Current -273.15 T_Measured 27)
                                             X_U1.R3 <X_U1.R_NOISELESS> (T_Current -273.15 T_Measured 27)

          R        5.000E+04      5.000E+04      1.500E+05  


               X_U1.R4 <X_U1.R_NOISELESS> (T_Current -273.15 T_Measured 27)
                              X_U1.R5 <X_U1.R_NOISELESS> (T_Current -273.15 T_Measured 27)
                                             X_U1.R6 <X_U1.R_NOISELESS> (T_Current -273.15 T_Measured 27)

          R        1.500E+05      1.500E+05      1.500E+05  


               X_U1.R7 <X_U1.R_NOISELESS> (T_Current -273.15 T_Measured 27)
                              X_U1.R8 <X_U1.R_NOISELESS> (T_Current -273.15 T_Measured 27)
                                             X_U1.R9 <X_U1.R_NOISELESS> (T_Current -273.15 T_Measured 27)

          R        1.000E-03      1.000E+12      1.000E-03  


               X_U1.R59 <X_U1.R_NOISELESS> (T_Current -273.15 T_Measured 27)
                              X_U1.R60 <X_U1.R_NOISELESS> (T_Current -273.15 T_Measured 27)
                                             X_U1.R88 <X_U1.R_NOISELESS> (T_Current -273.15 T_Measured 27)

          R        1.000E+06      1.000E+06      1.000E+00  


               X_U1.R89 <X_U1.R_NOISELESS> (T_Current -273.15 T_Measured 27)
                              X_U2.R77 <X_U2.R_NOISELESS> (T_Current -273.15 T_Measured 27)
                                             X_U2.R76 <X_U2.R_NOISELESS> (T_Current -273.15 T_Measured 27)

          R        1.000E+00      1.000E+02      1.000E+02  


               X_U2.R75 <X_U2.R_NOISELESS> (T_Current -273.15 T_Measured 27)
                              X_U2.R74 <X_U2.R_NOISELESS> (T_Current -273.15 T_Measured 27)
                                             X_U2.R39 <X_U2.R_NOISELESS> (T_Current -273.15 T_Measured 27)

          R        1.000E+00      1.000E+00      1.000E+12  


               X_U2.R37 <X_U2.R_NOISELESS> (T_Current -273.15 T_Measured 27)
                              X_U2.R42 <X_U2.R_NOISELESS> (T_Current -273.15 T_Measured 27)
                                             X_U2.R38 <X_U2.R_NOISELESS> (T_Current -273.15 T_Measured 27)

          R        1.000E+12      1.000E-03      1.000E+00  


               X_U2.R36 <X_U2.R_NOISELESS> (T_Current -273.15 T_Measured 27)
                              X_U2.R40 <X_U2.R_NOISELESS> (T_Current -273.15 T_Measured 27)
                                             X_U2.R41 <X_U2.R_NOISELESS> (T_Current -273.15 T_Measured 27)

          R        1.000E+00      1.000E-03      1.000E-03  


               X_U2.R21 <X_U2.R_NOISELESS> (T_Current -273.15 T_Measured 27)
                              X_U2.R20 <X_U2.R_NOISELESS> (T_Current -273.15 T_Measured 27)
                                             X_U2.R29 <X_U2.R_NOISELESS> (T_Current -273.15 T_Measured 27)

          R        1.000E+00      1.000E+00      1.000E-03  


               X_U2.R30 <X_U2.R_NOISELESS> (T_Current -273.15 T_Measured 27)
                              X_U2.R22 <X_U2.R_NOISELESS> (T_Current -273.15 T_Measured 27)
                                             X_U2.R19 <X_U2.R_NOISELESS> (T_Current -273.15 T_Measured 27)

          R        1.000E-03      1.000E+12      1.000E+12  


               X_U2.R12 <X_U2.R_NOISELESS> (T_Current -273.15 T_Measured 27)
                              X_U2.R16 <X_U2.R_NOISELESS> (T_Current -273.15 T_Measured 27)
                                             X_U2.R13 <X_U2.R_NOISELESS> (T_Current -273.15 T_Measured 27)

          R        1.000E+03      1.000E-03      1.000E+03  


               X_U2.R17 <X_U2.R_NOISELESS> (T_Current -273.15 T_Measured 27)
                              X_U2.R15 <X_U2.R_NOISELESS> (T_Current -273.15 T_Measured 27)
                                             X_U2.R14 <X_U2.R_NOISELESS> (T_Current -273.15 T_Measured 27)

          R        1.000E-03      1.000E+03      1.000E+03  


               X_U2.R26 <X_U2.R_NOISELESS> (T_Current -273.15 T_Measured 27)
                              X_U2.R23 <X_U2.R_NOISELESS> (T_Current -273.15 T_Measured 27)
                                             X_U2.R25 <X_U2.R_NOISELESS> (T_Current -273.15 T_Measured 27)

          R        1.000E+12      1.000E+12      1.000E+00  


               X_U2.R24 <X_U2.R_NOISELESS> (T_Current -273.15 T_Measured 27)
                              X_U2.R27 <X_U2.R_NOISELESS> (T_Current -273.15 T_Measured 27)
                                             X_U2.R28 <X_U2.R_NOISELESS> (T_Current -273.15 T_Measured 27)

          R        1.000E+00      1.000E-03      1.000E-03  


               X_U2.R32 <X_U2.R_NOISELESS> (T_Current -273.15 T_Measured 27)
                              X_U2.R31 <X_U2.R_NOISELESS> (T_Current -273.15 T_Measured 27)
                                             X_U2.R11 <X_U2.R_NOISELESS> (T_Current -273.15 T_Measured 27)

          R        1.000E+02      1.000E+00      1.000E+12  


               X_U2.R18 <X_U2.R_NOISELESS> (T_Current -273.15 T_Measured 27)
                              X_U2.R33 <X_U2.R_NOISELESS> (T_Current -273.15 T_Measured 27)
                                             X_U2.R10 <X_U2.R_NOISELESS> (T_Current -273.15 T_Measured 27)

          R        1.000E+02      1.000E+02      1.000E+12  


               X_U2.R47 <X_U2.R_NOISELESS> (T_Current -273.15 T_Measured 27)
                              X_U2.R9 <X_U2.R_NOISELESS> (T_Current -273.15 T_Measured 27)
                                             X_U2.R7 <X_U2.R_NOISELESS> (T_Current -273.15 T_Measured 27)

          R        1.000E+02      1.000E-03      1.000E+12  


               X_U2.R6 <X_U2.R_NOISELESS> (T_Current -273.15 T_Measured 27)
                              X_U2.R8 <X_U2.R_NOISELESS> (T_Current -273.15 T_Measured 27)
                                             X_U2.R89 <X_U2.R_NOISELESS> (T_Current -273.15 T_Measured 27)

          R        1.000E+12      1.000E+00      1.000E+00  


               X_U2.R5 <X_U2.R_NOISELESS> (T_Current -273.15 T_Measured 27)
                              X_U2.R60 <X_U2.R_NOISELESS> (T_Current -273.15 T_Measured 27)
                                             X_U2.R3 <X_U2.R_NOISELESS> (T_Current -273.15 T_Measured 27)

          R        1.000E-03      1.000E+06      1.000E+12  


               X_U2.R59 <X_U2.R_NOISELESS> (T_Current -273.15 T_Measured 27)
                              X_U2.R4 <X_U2.R_NOISELESS> (T_Current -273.15 T_Measured 27)
                                             X_U2.R88 <X_U2.R_NOISELESS> (T_Current -273.15 T_Measured 27)

          R        1.000E+06      1.000E-03      1.000E+00  


               X_U2.R_PSR <X_U2.R_NOISELESS> (T_Current -273.15 T_Measured 27)
                              X_U2.R2 <X_U2.R_NOISELESS> (T_Current -273.15 T_Measured 27)
                                             X_U2.R1 <X_U2.R_NOISELESS> (T_Current -273.15 T_Measured 27)

          R        1.000E+03      1.000E-03      1.000E-03  


               X_U2.R_CMR <X_U2.R_NOISELESS> (T_Current -273.15 T_Measured 27)
                              X_U2.R53 <X_U2.R_NOISELESS> (T_Current -273.15 T_Measured 27)
                                             X_U2.R52 <X_U2.R_NOISELESS> (T_Current -273.15 T_Measured 27)

          R        1.000E+03      1.000E+12      1.000E+12  


               X_U2.R35 <X_U2.R_NOISELESS> (T_Current -273.15 T_Measured 27)
                              X_U2.R34 <X_U2.R_NOISELESS> (T_Current -273.15 T_Measured 27)
                                             X_U1.XA1.R_PSR <X_U1.XA1.R_NOISELESS> (T_Current -273.15 T_Measured 27)

          R        1.000E-02      1.000E-02      1.000E+03  


               X_U1.XA1.R1 <X_U1.XA1.R_NOISELESS> (T_Current -273.15 T_Measured 27)
                              X_U1.XA1.R2 <X_U1.XA1.R_NOISELESS> (T_Current -273.15 T_Measured 27)
                                             X_U1.XA1.R4 <X_U1.XA1.R_NOISELESS> (T_Current -273.15 T_Measured 27)

          R        1.000E-03      1.000E-03      9.155E+03  


               X_U1.XA1.R6 <X_U1.XA1.R_NOISELESS> (T_Current -273.15 T_Measured 27)
                              X_U1.XA1.R7 <X_U1.XA1.R_NOISELESS> (T_Current -273.15 T_Measured 27)
                                             X_U1.XA1.R8 <X_U1.XA1.R_NOISELESS> (T_Current -273.15 T_Measured 27)

          R        1.000E+12      1.000E+12      1.000E+00  


               X_U1.XA1.R9 <X_U1.XA1.R_NOISELESS> (T_Current -273.15 T_Measured 27)
                              X_U1.XA1.R10 <X_U1.XA1.R_NOISELESS> (T_Current -273.15 T_Measured 27)
                                             X_U1.XA1.R11 <X_U1.XA1.R_NOISELESS> (T_Current -273.15 T_Measured 27)

          R        1.000E-03      1.000E+12      1.000E+12  


               X_U1.XA1.R18 <X_U1.XA1.R_NOISELESS> (T_Current -273.15 T_Measured 27)
                              X_U1.XA1.R23 <X_U1.XA1.R_NOISELESS> (T_Current -273.15 T_Measured 27)
                                             X_U1.XA1.R24 <X_U1.XA1.R_NOISELESS> (T_Current -273.15 T_Measured 27)

          R        1.000E+02      1.000E+12      1.000E+00  


               X_U1.XA1.R25 <X_U1.XA1.R_NOISELESS> (T_Current -273.15 T_Measured 27)
                              X_U1.XA1.R26 <X_U1.XA1.R_NOISELESS> (T_Current -273.15 T_Measured 27)
                                             X_U1.XA1.R27 <X_U1.XA1.R_NOISELESS> (T_Current -273.15 T_Measured 27)

          R        1.000E+00      1.000E+12      1.000E-03  


               X_U1.XA1.R28 <X_U1.XA1.R_NOISELESS> (T_Current -273.15 T_Measured 27)
                              X_U1.XA1.R31 <X_U1.XA1.R_NOISELESS> (T_Current -273.15 T_Measured 27)
                                             X_U1.XA1.R32 <X_U1.XA1.R_NOISELESS> (T_Current -273.15 T_Measured 27)

          R        1.000E-03      1.000E+00      1.000E+02  


               X_U1.XA1.R33 <X_U1.XA1.R_NOISELESS> (T_Current -273.15 T_Measured 27)
                              X_U1.XA1.R34 <X_U1.XA1.R_NOISELESS> (T_Current -273.15 T_Measured 27)
                                             X_U1.XA1.R35 <X_U1.XA1.R_NOISELESS> (T_Current -273.15 T_Measured 27)

          R        1.000E+02      1.000E-02      1.000E-02  


               X_U1.XA1.R36 <X_U1.XA1.R_NOISELESS> (T_Current -273.15 T_Measured 27)
                              X_U1.XA1.R37 <X_U1.XA1.R_NOISELESS> (T_Current -273.15 T_Measured 27)
                                             X_U1.XA1.R38 <X_U1.XA1.R_NOISELESS> (T_Current -273.15 T_Measured 27)

          R        1.000E+00      1.000E+12      1.000E+00  


               X_U1.XA1.R39 <X_U1.XA1.R_NOISELESS> (T_Current -273.15 T_Measured 27)
                              X_U1.XA1.R40 <X_U1.XA1.R_NOISELESS> (T_Current -273.15 T_Measured 27)
                                             X_U1.XA1.R41 <X_U1.XA1.R_NOISELESS> (T_Current -273.15 T_Measured 27)

          R        1.000E+12      1.000E-03      1.000E-03  


               X_U1.XA1.R42 <X_U1.XA1.R_NOISELESS> (T_Current -273.15 T_Measured 27)
                              X_U1.XA1.R52 <X_U1.XA1.R_NOISELESS> (T_Current -273.15 T_Measured 27)
                                             X_U1.XA1.R53 <X_U1.XA1.R_NOISELESS> (T_Current -273.15 T_Measured 27)

          R        1.000E-03      1.000E+12      1.000E+12  


               X_U1.XA1.R76 <X_U1.XA1.R_NOISELESS> (T_Current -273.15 T_Measured 27)
                              X_U1.XA1.R77 <X_U1.XA1.R_NOISELESS> (T_Current -273.15 T_Measured 27)
                                             X_U1.XA1.R88 <X_U1.XA1.R_NOISELESS> (T_Current -273.15 T_Measured 27)

          R        1.000E+02      1.000E+02      1.000E+00  


               X_U1.XA1.R89 <X_U1.XA1.R_NOISELESS> (T_Current -273.15 T_Measured 27)
                              X_U1.XA2.R_PSR <X_U1.XA2.R_NOISELESS> (T_Current -273.15 T_Measured 27)
                                             X_U1.XA2.R1 <X_U1.XA2.R_NOISELESS> (T_Current -273.15 T_Measured 27)

          R        1.000E+00      1.000E+03      1.000E-03  


               X_U1.XA2.R2 <X_U1.XA2.R_NOISELESS> (T_Current -273.15 T_Measured 27)
                              X_U1.XA2.R4 <X_U1.XA2.R_NOISELESS> (T_Current -273.15 T_Measured 27)
                                             X_U1.XA2.R6 <X_U1.XA2.R_NOISELESS> (T_Current -273.15 T_Measured 27)

          R        1.000E-03      9.155E+03      1.000E+12  


               X_U1.XA2.R7 <X_U1.XA2.R_NOISELESS> (T_Current -273.15 T_Measured 27)
                              X_U1.XA2.R8 <X_U1.XA2.R_NOISELESS> (T_Current -273.15 T_Measured 27)
                                             X_U1.XA2.R9 <X_U1.XA2.R_NOISELESS> (T_Current -273.15 T_Measured 27)

          R        1.000E+12      1.000E+00      1.000E-03  


               X_U1.XA2.R10 <X_U1.XA2.R_NOISELESS> (T_Current -273.15 T_Measured 27)
                              X_U1.XA2.R11 <X_U1.XA2.R_NOISELESS> (T_Current -273.15 T_Measured 27)
                                             X_U1.XA2.R18 <X_U1.XA2.R_NOISELESS> (T_Current -273.15 T_Measured 27)

          R        1.000E+12      1.000E+12      1.000E+02  


               X_U1.XA2.R23 <X_U1.XA2.R_NOISELESS> (T_Current -273.15 T_Measured 27)
                              X_U1.XA2.R24 <X_U1.XA2.R_NOISELESS> (T_Current -273.15 T_Measured 27)
                                             X_U1.XA2.R25 <X_U1.XA2.R_NOISELESS> (T_Current -273.15 T_Measured 27)

          R        1.000E+12      1.000E+00      1.000E+00  


               X_U1.XA2.R26 <X_U1.XA2.R_NOISELESS> (T_Current -273.15 T_Measured 27)
                              X_U1.XA2.R27 <X_U1.XA2.R_NOISELESS> (T_Current -273.15 T_Measured 27)
                                             X_U1.XA2.R28 <X_U1.XA2.R_NOISELESS> (T_Current -273.15 T_Measured 27)

          R        1.000E+12      1.000E-03      1.000E-03  


               X_U1.XA2.R31 <X_U1.XA2.R_NOISELESS> (T_Current -273.15 T_Measured 27)
                              X_U1.XA2.R32 <X_U1.XA2.R_NOISELESS> (T_Current -273.15 T_Measured 27)
                                             X_U1.XA2.R33 <X_U1.XA2.R_NOISELESS> (T_Current -273.15 T_Measured 27)

          R        1.000E+00      1.000E+02      1.000E+02  


               X_U1.XA2.R34 <X_U1.XA2.R_NOISELESS> (T_Current -273.15 T_Measured 27)
                              X_U1.XA2.R35 <X_U1.XA2.R_NOISELESS> (T_Current -273.15 T_Measured 27)
                                             X_U1.XA2.R36 <X_U1.XA2.R_NOISELESS> (T_Current -273.15 T_Measured 27)

          R        1.000E-02      1.000E-02      1.000E+00  


               X_U1.XA2.R37 <X_U1.XA2.R_NOISELESS> (T_Current -273.15 T_Measured 27)
                              X_U1.XA2.R38 <X_U1.XA2.R_NOISELESS> (T_Current -273.15 T_Measured 27)
                                             X_U1.XA2.R39 <X_U1.XA2.R_NOISELESS> (T_Current -273.15 T_Measured 27)

          R        1.000E+12      1.000E+00      1.000E+12  


               X_U1.XA2.R40 <X_U1.XA2.R_NOISELESS> (T_Current -273.15 T_Measured 27)
                              X_U1.XA2.R41 <X_U1.XA2.R_NOISELESS> (T_Current -273.15 T_Measured 27)
                                             X_U1.XA2.R42 <X_U1.XA2.R_NOISELESS> (T_Current -273.15 T_Measured 27)

          R        1.000E-03      1.000E-03      1.000E-03  


               X_U1.XA2.R52 <X_U1.XA2.R_NOISELESS> (T_Current -273.15 T_Measured 27)
                              X_U1.XA2.R53 <X_U1.XA2.R_NOISELESS> (T_Current -273.15 T_Measured 27)
                                             X_U1.XA2.R76 <X_U1.XA2.R_NOISELESS> (T_Current -273.15 T_Measured 27)

          R        1.000E+12      1.000E+12      1.000E+02  


               X_U1.XA2.R77 <X_U1.XA2.R_NOISELESS> (T_Current -273.15 T_Measured 27)
                              X_U1.XA2.R88 <X_U1.XA2.R_NOISELESS> (T_Current -273.15 T_Measured 27)
                                             X_U1.XA2.R89 <X_U1.XA2.R_NOISELESS> (T_Current -273.15 T_Measured 27)

          R        1.000E+02      1.000E+00      1.000E+00  


               X_U1.XA3.R_PSR <X_U1.XA3.R_NOISELESS> (T_Current -273.15 T_Measured 27)
                              X_U1.XA3.R1 <X_U1.XA3.R_NOISELESS> (T_Current -273.15 T_Measured 27)
                                             X_U1.XA3.R2 <X_U1.XA3.R_NOISELESS> (T_Current -273.15 T_Measured 27)

          R        1.000E+03      1.000E-03      1.000E-03  


               X_U1.XA3.R6 <X_U1.XA3.R_NOISELESS> (T_Current -273.15 T_Measured 27)
                              X_U1.XA3.R7 <X_U1.XA3.R_NOISELESS> (T_Current -273.15 T_Measured 27)
                                             X_U1.XA3.R8 <X_U1.XA3.R_NOISELESS> (T_Current -273.15 T_Measured 27)

          R        1.000E+12      1.000E+12      1.000E+00  


               X_U1.XA3.R9 <X_U1.XA3.R_NOISELESS> (T_Current -273.15 T_Measured 27)
                              X_U1.XA3.R10 <X_U1.XA3.R_NOISELESS> (T_Current -273.15 T_Measured 27)
                                             X_U1.XA3.R11 <X_U1.XA3.R_NOISELESS> (T_Current -273.15 T_Measured 27)

          R        1.000E-03      1.000E+12      1.000E+12  


               X_U1.XA3.R12 <X_U1.XA3.R_NOISELESS> (T_Current -273.15 T_Measured 27)
                              X_U1.XA3.R13 <X_U1.XA3.R_NOISELESS> (T_Current -273.15 T_Measured 27)
                                             X_U1.XA3.R14 <X_U1.XA3.R_NOISELESS> (T_Current -273.15 T_Measured 27)

          R        1.000E+03      1.000E+03      1.000E+03  


               X_U1.XA3.R15 <X_U1.XA3.R_NOISELESS> (T_Current -273.15 T_Measured 27)
                              X_U1.XA3.R16 <X_U1.XA3.R_NOISELESS> (T_Current -273.15 T_Measured 27)
                                             X_U1.XA3.R17 <X_U1.XA3.R_NOISELESS> (T_Current -273.15 T_Measured 27)

          R        1.000E+03      1.000E-03      1.000E-03  


               X_U1.XA3.R18 <X_U1.XA3.R_NOISELESS> (T_Current -273.15 T_Measured 27)
                              X_U1.XA3.R19 <X_U1.XA3.R_NOISELESS> (T_Current -273.15 T_Measured 27)
                                             X_U1.XA3.R20 <X_U1.XA3.R_NOISELESS> (T_Current -273.15 T_Measured 27)

          R        1.000E+02      1.000E+12      1.000E+00  


               X_U1.XA3.R21 <X_U1.XA3.R_NOISELESS> (T_Current -273.15 T_Measured 27)
                              X_U1.XA3.R22 <X_U1.XA3.R_NOISELESS> (T_Current -273.15 T_Measured 27)
                                             X_U1.XA3.R23 <X_U1.XA3.R_NOISELESS> (T_Current -273.15 T_Measured 27)

          R        1.000E+00      1.000E+12      1.000E+12  


               X_U1.XA3.R24 <X_U1.XA3.R_NOISELESS> (T_Current -273.15 T_Measured 27)
                              X_U1.XA3.R25 <X_U1.XA3.R_NOISELESS> (T_Current -273.15 T_Measured 27)
                                             X_U1.XA3.R26 <X_U1.XA3.R_NOISELESS> (T_Current -273.15 T_Measured 27)

          R        1.000E+00      1.000E+00      1.000E+12  


               X_U1.XA3.R27 <X_U1.XA3.R_NOISELESS> (T_Current -273.15 T_Measured 27)
                              X_U1.XA3.R28 <X_U1.XA3.R_NOISELESS> (T_Current -273.15 T_Measured 27)
                                             X_U1.XA3.R29 <X_U1.XA3.R_NOISELESS> (T_Current -273.15 T_Measured 27)

          R        1.000E-03      1.000E-03      1.000E-03  


               X_U1.XA3.R30 <X_U1.XA3.R_NOISELESS> (T_Current -273.15 T_Measured 27)
                              X_U1.XA3.R31 <X_U1.XA3.R_NOISELESS> (T_Current -273.15 T_Measured 27)
                                             X_U1.XA3.R32 <X_U1.XA3.R_NOISELESS> (T_Current -273.15 T_Measured 27)

          R        1.000E-03      1.000E+00      1.000E+02  


               X_U1.XA3.R33 <X_U1.XA3.R_NOISELESS> (T_Current -273.15 T_Measured 27)
                              X_U1.XA3.R34 <X_U1.XA3.R_NOISELESS> (T_Current -273.15 T_Measured 27)
                                             X_U1.XA3.R35 <X_U1.XA3.R_NOISELESS> (T_Current -273.15 T_Measured 27)

          R        1.000E+02      1.000E-02      1.000E-02  


               X_U1.XA3.R36 <X_U1.XA3.R_NOISELESS> (T_Current -273.15 T_Measured 27)
                              X_U1.XA3.R37 <X_U1.XA3.R_NOISELESS> (T_Current -273.15 T_Measured 27)
                                             X_U1.XA3.R38 <X_U1.XA3.R_NOISELESS> (T_Current -273.15 T_Measured 27)

          R        1.000E+00      1.000E+12      1.000E+00  


               X_U1.XA3.R39 <X_U1.XA3.R_NOISELESS> (T_Current -273.15 T_Measured 27)
                              X_U1.XA3.R40 <X_U1.XA3.R_NOISELESS> (T_Current -273.15 T_Measured 27)
                                             X_U1.XA3.R41 <X_U1.XA3.R_NOISELESS> (T_Current -273.15 T_Measured 27)

          R        1.000E+12      1.000E-03      1.000E-03  


               X_U1.XA3.R42 <X_U1.XA3.R_NOISELESS> (T_Current -273.15 T_Measured 27)
                              X_U1.XA3.R47 <X_U1.XA3.R_NOISELESS> (T_Current -273.15 T_Measured 27)
                                             X_U1.XA3.R52 <X_U1.XA3.R_NOISELESS> (T_Current -273.15 T_Measured 27)

          R        1.000E-03      1.000E+02      1.000E+12  


               X_U1.XA3.R53 <X_U1.XA3.R_NOISELESS> (T_Current -273.15 T_Measured 27)
                              X_U1.XA3.R74 <X_U1.XA3.R_NOISELESS> (T_Current -273.15 T_Measured 27)
                                             X_U1.XA3.R75 <X_U1.XA3.R_NOISELESS> (T_Current -273.15 T_Measured 27)

          R        1.000E+12      1.000E+00      1.000E+00  


               X_U1.XA3.R76 <X_U1.XA3.R_NOISELESS> (T_Current -273.15 T_Measured 27)
                              X_U1.XA3.R77 <X_U1.XA3.R_NOISELESS> (T_Current -273.15 T_Measured 27)
                                             X_U1.XA3.R88 <X_U1.XA3.R_NOISELESS> (T_Current -273.15 T_Measured 27)

          R        1.000E+02      1.000E+02      1.000E+00  


               X_U1.XA3.R89 <X_U1.XA3.R_NOISELESS> (T_Current -273.15 T_Measured 27)
                              X_U2.XU4.R74 <X_U2.XU4.R_NOISELESS> (T_Current -273.15 T_Measured 27)
                                             X_U2.XU4.R2b <X_U2.XU4.R_NOISELESS> (T_Current -273.15 T_Measured 27)

          R        1.000E+00      1.000E+00      9.970E+07  


               X_U2.XU4.R73 <X_U2.XU4.R_NOISELESS> (T_Current -273.15 T_Measured 27)
                              X_U2.XU4.R49 <X_U2.XU4.R_NOISELESS> (T_Current -273.15 T_Measured 27)
                                             X_U2.XU4.R2a <X_U2.XU4.R_NOISELESS> (T_Current -273.15 T_Measured 27)

          R        1.000E+08      1.000E+00      1.667E+04  


               X_U2.XU4.R48 <X_U2.XU4.R_NOISELESS> (T_Current -273.15 T_Measured 27)
                              X_U2.XU4.Rsrc <X_U2.XU4.R_NOISELESS> (T_Current -273.15 T_Measured 27)
                                             X_U2.XU3.R74 <X_U2.XU3.R_NOISELESS> (T_Current -273.15 T_Measured 27)

          R        1.000E+08      1.000E+00      1.000E+00  


               X_U2.XU3.R2b <X_U2.XU3.R_NOISELESS> (T_Current -273.15 T_Measured 27)
                              X_U2.XU3.R73 <X_U2.XU3.R_NOISELESS> (T_Current -273.15 T_Measured 27)
                                             X_U2.XU3.R49 <X_U2.XU3.R_NOISELESS> (T_Current -273.15 T_Measured 27)

          R        4.167E+06      1.000E+08      1.000E+00  


               X_U2.XU3.R2a <X_U2.XU3.R_NOISELESS> (T_Current -273.15 T_Measured 27)
                              X_U2.XU3.R48 <X_U2.XU3.R_NOISELESS> (T_Current -273.15 T_Measured 27)
                                             X_U2.XU3.Rsrc <X_U2.XU3.R_NOISELESS> (T_Current -273.15 T_Measured 27)

          R        6.504E+04      1.000E+08      1.000E+00  


               X_U2.XU2.R74 <X_U2.XU2.R_NOISELESS> (T_Current -273.15 T_Measured 27)
                              X_U2.XU2.R2b <X_U2.XU2.R_NOISELESS> (T_Current -273.15 T_Measured 27)
                                             X_U2.XU2.R73 <X_U2.XU2.R_NOISELESS> (T_Current -273.15 T_Measured 27)

          R        1.000E+00      4.167E+06      1.000E+08  


               X_U2.XU2.R49 <X_U2.XU2.R_NOISELESS> (T_Current -273.15 T_Measured 27)
                              X_U2.XU2.R2a <X_U2.XU2.R_NOISELESS> (T_Current -273.15 T_Measured 27)
                                             X_U2.XU2.R48 <X_U2.XU2.R_NOISELESS> (T_Current -273.15 T_Measured 27)

          R        1.000E+00      6.504E+04      1.000E+08  


               X_U2.XU2.Rsrc <X_U2.XU2.R_NOISELESS> (T_Current -273.15 T_Measured 27)
                              X_U2.XU1.R4_A0 <X_U2.XU1.R_NOISELESS> (T_Current -273.15 T_Measured 27)
                                             X_U2.XU1.R3_A0 <X_U2.XU1.R_NOISELESS> (T_Current -273.15 T_Measured 27)

          R        1.000E+00      1.000E+06      1.000E+06  


               X_U2.XU1.R4_VS <X_U2.XU1.R_NOISELESS> (T_Current -273.15 T_Measured 27)
                              X_U2.XU1.R4_A2 <X_U2.XU1.R_NOISELESS> (T_Current -273.15 T_Measured 27)
                                             X_U2.XU1.R5_A2 <X_U2.XU1.R_NOISELESS> (T_Current -273.15 T_Measured 27)

          R        1.000E+03      1.000E+00      1.000E+04  


               X_U2.XU1.R6_A2 <X_U2.XU1.R_NOISELESS> (T_Current -273.15 T_Measured 27)
                              X_U2.XU1.R3_A3 <X_U2.XU1.R_NOISELESS> (T_Current -273.15 T_Measured 27)
                                             X_U2.XU1.R3_A4 <X_U2.XU1.R_NOISELESS> (T_Current -273.15 T_Measured 27)

          R        1.394E+03      1.000E+06      1.000E+06  


               X_U2.XU1.R3_A5 <X_U2.XU1.R_NOISELESS> (T_Current -273.15 T_Measured 27)
                              X_U2.XU1.R3_A6 <X_U2.XU1.R_NOISELESS> (T_Current -273.15 T_Measured 27)
                                             X_U2.XU1.R4_CC <X_U2.XU1.R_NOISELESS> (T_Current -273.15 T_Measured 27)

          R        1.000E+06      1.000E+06      1.000E+03  


               X_U2.XU1.R4_CL <X_U2.XU1.R_NOISELESS> (T_Current -273.15 T_Measured 27)
                              X_U2.XU1.R2_1 <X_U2.XU1.R_NOISELESS> (T_Current -273.15 T_Measured 27)
                                             X_U2.XU1.R1_1 <X_U2.XU1.R_NOISELESS> (T_Current -273.15 T_Measured 27)

          R        1.000E+03      5.846E+03      1.000E+04  


               X_U2.XU1.Rdc_1 <X_U2.XU1.R_NOISELESS> (T_Current -273.15 T_Measured 27)
                              X_U2.XU1.R5_2 <X_U2.XU1.R_NOISELESS> (T_Current -273.15 T_Measured 27)
                                             X_U2.XU1.R4_2 <X_U2.XU1.R_NOISELESS> (T_Current -273.15 T_Measured 27)

          R        1.000E+00      1.000E+04      5.546E+05  


               X_U2.XU1.R7_2 <X_U2.XU1.R_NOISELESS> (T_Current -273.15 T_Measured 27)
                              X_U2.XU1.R1_3 <X_U2.XU1.R_NOISELESS> (T_Current -273.15 T_Measured 27)
                                             X_U2.XU1.R11_3 <X_U2.XU1.R_NOISELESS> (T_Current -273.15 T_Measured 27)

          R        1.000E+00      1.000E+00      3.200E-03  


               X_U2.XU1.R10_3 <X_U2.XU1.R_NOISELESS> (T_Current -273.15 T_Measured 27)
                              X_U2.XU1.R9_3 <X_U2.XU1.R_NOISELESS> (T_Current -273.15 T_Measured 27)
                                             X_U2.XU1.Rdummy <X_U2.XU1.R_NOISELESS> (T_Current -273.15 T_Measured 27)

          R        1.000E+04      1.000E+00      1.013E+05  


               X_U2.XU1.Rx <X_U2.XU1.R_NOISELESS> (T_Current -273.15 T_Measured 27)
                              X_U1.XA1.XU1.R1_1 <X_U1.XA1.XU1.R_NOISELESS> (T_Current -273.15 T_Measured 27)
                                             X_U1.XA1.XU1.R1_3 <X_U1.XA1.XU1.R_NOISELESS> (T_Current -273.15 T_Measured 27)

          R        1.013E+06      1.000E+04      1.000E+04  


               X_U1.XA1.XU1.R1_5 <X_U1.XA1.XU1.R_NOISELESS> (T_Current -273.15 T_Measured 27)
                              X_U1.XA1.XU1.R2_1 <X_U1.XA1.XU1.R_NOISELESS> (T_Current -273.15 T_Measured 27)
                                             X_U1.XA1.XU1.R2_3 <X_U1.XA1.XU1.R_NOISELESS> (T_Current -273.15 T_Measured 27)

          R        1.000E+00      9.006E+01      3.279E+04  


               X_U1.XA1.XU1.R3_A0 <X_U1.XA1.XU1.R_NOISELESS> (T_Current -273.15 T_Measured 27)
                              X_U1.XA1.XU1.R3_A2 <X_U1.XA1.XU1.R_NOISELESS> (T_Current -273.15 T_Measured 27)
                                             X_U1.XA1.XU1.R4_2 <X_U1.XA1.XU1.R_NOISELESS> (T_Current -273.15 T_Measured 27)

          R        1.000E+06      1.000E+06      3.200E+06  


               X_U1.XA1.XU1.R4_4 <X_U1.XA1.XU1.R_NOISELESS> (T_Current -273.15 T_Measured 27)
                              X_U1.XA1.XU1.R4_A0 <X_U1.XA1.XU1.R_NOISELESS> (T_Current -273.15 T_Measured 27)
                                             X_U1.XA1.XU1.R4_CC <X_U1.XA1.XU1.R_NOISELESS> (T_Current -273.15 T_Measured 27)

          R        9.040E+03      1.000E+06      1.000E+03  


               X_U1.XA1.XU1.R4_CL <X_U1.XA1.XU1.R_NOISELESS> (T_Current -273.15 T_Measured 27)
                              X_U1.XA1.XU1.R4_VS <X_U1.XA1.XU1.R_NOISELESS> (T_Current -273.15 T_Measured 27)
                                             X_U1.XA1.XU1.R5_2 <X_U1.XA1.XU1.R_NOISELESS> (T_Current -273.15 T_Measured 27)

          R        1.000E+03      1.000E+03      1.000E+04  


               X_U1.XA1.XU1.R5_4 <X_U1.XA1.XU1.R_NOISELESS> (T_Current -273.15 T_Measured 27)
                              X_U1.XA1.XU1.R7_2 <X_U1.XA1.XU1.R_NOISELESS> (T_Current -273.15 T_Measured 27)
                                             X_U1.XA1.XU1.R7_4 <X_U1.XA1.XU1.R_NOISELESS> (T_Current -273.15 T_Measured 27)

          R        1.000E+04      1.000E+00      1.000E+00  


               X_U1.XA1.XU1.R9_5 <X_U1.XA1.XU1.R_NOISELESS> (T_Current -273.15 T_Measured 27)
                              X_U1.XA1.XU1.R10_5 <X_U1.XA1.XU1.R_NOISELESS> (T_Current -273.15 T_Measured 27)
                                             X_U1.XA1.XU1.R11_5 <X_U1.XA1.XU1.R_NOISELESS> (T_Current -273.15 T_Measured 27)

          R        1.000E+00      1.000E+04      1.267E-01  


               X_U1.XA1.XU1.RDC_1 <X_U1.XA1.XU1.R_NOISELESS> (T_Current -273.15 T_Measured 27)
                              X_U1.XA1.XU1.RDC_3 <X_U1.XA1.XU1.R_NOISELESS> (T_Current -273.15 T_Measured 27)
                                             X_U1.XA1.XU1.RDUMMY <X_U1.XA1.XU1.R_NOISELESS> (T_Current -273.15 T_Measured 27)

          R        1.000E+00      1.000E+00      3.834E+04  


               X_U1.XA1.XU1.RX <X_U1.XA1.XU1.R_NOISELESS> (T_Current -273.15 T_Measured 27)
                              X_U1.XA1.XU2.R2A <X_U1.XA1.XU2.R_NOISELESS> (T_Current -273.15 T_Measured 27)
                                             X_U1.XA1.XU2.R2B <X_U1.XA1.XU2.R_NOISELESS> (T_Current -273.15 T_Measured 27)

          R        3.834E+05      3.001E+04      8.065E+05  


               X_U1.XA1.XU2.R48 <X_U1.XA1.XU2.R_NOISELESS> (T_Current -273.15 T_Measured 27)
                              X_U1.XA1.XU2.R49 <X_U1.XA1.XU2.R_NOISELESS> (T_Current -273.15 T_Measured 27)
                                             X_U1.XA1.XU2.R73 <X_U1.XA1.XU2.R_NOISELESS> (T_Current -273.15 T_Measured 27)

          R        1.000E+08      1.000E+00      1.000E+08  


               X_U1.XA1.XU2.R74 <X_U1.XA1.XU2.R_NOISELESS> (T_Current -273.15 T_Measured 27)
                              X_U1.XA1.XU2.RSRC <X_U1.XA1.XU2.R_NOISELESS> (T_Current -273.15 T_Measured 27)
                                             X_U1.XA1.XU3.R2A <X_U1.XA1.XU3.R_NOISELESS> (T_Current -273.15 T_Measured 27)

          R        1.000E+00      1.000E+00      5.714E+02  


               X_U1.XA1.XU3.R2B <X_U1.XA1.XU3.R_NOISELESS> (T_Current -273.15 T_Measured 27)
                              X_U1.XA1.XU3.R48 <X_U1.XA1.XU3.R_NOISELESS> (T_Current -273.15 T_Measured 27)
                                             X_U1.XA1.XU3.R49 <X_U1.XA1.XU3.R_NOISELESS> (T_Current -273.15 T_Measured 27)

          R        1.667E+07      1.000E+08      1.000E+00  


               X_U1.XA1.XU3.R73 <X_U1.XA1.XU3.R_NOISELESS> (T_Current -273.15 T_Measured 27)
                              X_U1.XA1.XU3.R74 <X_U1.XA1.XU3.R_NOISELESS> (T_Current -273.15 T_Measured 27)
                                             X_U1.XA1.XU3.RSRC <X_U1.XA1.XU3.R_NOISELESS> (T_Current -273.15 T_Measured 27)

          R        1.000E+08      1.000E+00      1.000E+00  


               X_U1.XA2.XU1.R1_1 <X_U1.XA2.XU1.R_NOISELESS> (T_Current -273.15 T_Measured 27)
                              X_U1.XA2.XU1.R1_3 <X_U1.XA2.XU1.R_NOISELESS> (T_Current -273.15 T_Measured 27)
                                             X_U1.XA2.XU1.R1_5 <X_U1.XA2.XU1.R_NOISELESS> (T_Current -273.15 T_Measured 27)

          R        1.000E+04      1.000E+04      1.000E+00  


               X_U1.XA2.XU1.R2_1 <X_U1.XA2.XU1.R_NOISELESS> (T_Current -273.15 T_Measured 27)
                              X_U1.XA2.XU1.R2_3 <X_U1.XA2.XU1.R_NOISELESS> (T_Current -273.15 T_Measured 27)
                                             X_U1.XA2.XU1.R3_A0 <X_U1.XA2.XU1.R_NOISELESS> (T_Current -273.15 T_Measured 27)

          R        9.006E+01      3.279E+04      1.000E+06  


               X_U1.XA2.XU1.R3_A2 <X_U1.XA2.XU1.R_NOISELESS> (T_Current -273.15 T_Measured 27)
                              X_U1.XA2.XU1.R4_2 <X_U1.XA2.XU1.R_NOISELESS> (T_Current -273.15 T_Measured 27)
                                             X_U1.XA2.XU1.R4_4 <X_U1.XA2.XU1.R_NOISELESS> (T_Current -273.15 T_Measured 27)

          R        1.000E+06      3.200E+06      9.040E+03  


               X_U1.XA2.XU1.R4_A0 <X_U1.XA2.XU1.R_NOISELESS> (T_Current -273.15 T_Measured 27)
                              X_U1.XA2.XU1.R4_CC <X_U1.XA2.XU1.R_NOISELESS> (T_Current -273.15 T_Measured 27)
                                             X_U1.XA2.XU1.R4_CL <X_U1.XA2.XU1.R_NOISELESS> (T_Current -273.15 T_Measured 27)

          R        1.000E+06      1.000E+03      1.000E+03  


               X_U1.XA2.XU1.R4_VS <X_U1.XA2.XU1.R_NOISELESS> (T_Current -273.15 T_Measured 27)
                              X_U1.XA2.XU1.R5_2 <X_U1.XA2.XU1.R_NOISELESS> (T_Current -273.15 T_Measured 27)
                                             X_U1.XA2.XU1.R5_4 <X_U1.XA2.XU1.R_NOISELESS> (T_Current -273.15 T_Measured 27)

          R        1.000E+03      1.000E+04      1.000E+04  


               X_U1.XA2.XU1.R7_2 <X_U1.XA2.XU1.R_NOISELESS> (T_Current -273.15 T_Measured 27)
                              X_U1.XA2.XU1.R7_4 <X_U1.XA2.XU1.R_NOISELESS> (T_Current -273.15 T_Measured 27)
                                             X_U1.XA2.XU1.R9_5 <X_U1.XA2.XU1.R_NOISELESS> (T_Current -273.15 T_Measured 27)

          R        1.000E+00      1.000E+00      1.000E+00  


               X_U1.XA2.XU1.R10_5 <X_U1.XA2.XU1.R_NOISELESS> (T_Current -273.15 T_Measured 27)
                              X_U1.XA2.XU1.R11_5 <X_U1.XA2.XU1.R_NOISELESS> (T_Current -273.15 T_Measured 27)
                                             X_U1.XA2.XU1.RDC_1 <X_U1.XA2.XU1.R_NOISELESS> (T_Current -273.15 T_Measured 27)

          R        1.000E+04      1.267E-01      1.000E+00  


               X_U1.XA2.XU1.RDC_3 <X_U1.XA2.XU1.R_NOISELESS> (T_Current -273.15 T_Measured 27)
                              X_U1.XA2.XU1.RDUMMY <X_U1.XA2.XU1.R_NOISELESS> (T_Current -273.15 T_Measured 27)
                                             X_U1.XA2.XU1.RX <X_U1.XA2.XU1.R_NOISELESS> (T_Current -273.15 T_Measured 27)

          R        1.000E+00      3.834E+04      3.834E+05  


               X_U1.XA2.XU2.R2A <X_U1.XA2.XU2.R_NOISELESS> (T_Current -273.15 T_Measured 27)
                              X_U1.XA2.XU2.R2B <X_U1.XA2.XU2.R_NOISELESS> (T_Current -273.15 T_Measured 27)
                                             X_U1.XA2.XU2.R48 <X_U1.XA2.XU2.R_NOISELESS> (T_Current -273.15 T_Measured 27)

          R        3.001E+04      8.065E+05      1.000E+08  


               X_U1.XA2.XU2.R49 <X_U1.XA2.XU2.R_NOISELESS> (T_Current -273.15 T_Measured 27)
                              X_U1.XA2.XU2.R73 <X_U1.XA2.XU2.R_NOISELESS> (T_Current -273.15 T_Measured 27)
                                             X_U1.XA2.XU2.R74 <X_U1.XA2.XU2.R_NOISELESS> (T_Current -273.15 T_Measured 27)

          R        1.000E+00      1.000E+08      1.000E+00  


               X_U1.XA2.XU2.RSRC <X_U1.XA2.XU2.R_NOISELESS> (T_Current -273.15 T_Measured 27)
                              X_U1.XA2.XU3.R2A <X_U1.XA2.XU3.R_NOISELESS> (T_Current -273.15 T_Measured 27)
                                             X_U1.XA2.XU3.R2B <X_U1.XA2.XU3.R_NOISELESS> (T_Current -273.15 T_Measured 27)

          R        1.000E+00      5.714E+02      1.667E+07  


               X_U1.XA2.XU3.R48 <X_U1.XA2.XU3.R_NOISELESS> (T_Current -273.15 T_Measured 27)
                              X_U1.XA2.XU3.R49 <X_U1.XA2.XU3.R_NOISELESS> (T_Current -273.15 T_Measured 27)
                                             X_U1.XA2.XU3.R73 <X_U1.XA2.XU3.R_NOISELESS> (T_Current -273.15 T_Measured 27)

          R        1.000E+08      1.000E+00      1.000E+08  


               X_U1.XA2.XU3.R74 <X_U1.XA2.XU3.R_NOISELESS> (T_Current -273.15 T_Measured 27)
                              X_U1.XA2.XU3.RSRC <X_U1.XA2.XU3.R_NOISELESS> (T_Current -273.15 T_Measured 27)
                                             X_U1.XA3.XU1.R1_1 <X_U1.XA3.XU1.R_NOISELESS> (T_Current -273.15 T_Measured 27)

          R        1.000E+00      1.000E+00      1.000E+04  


               X_U1.XA3.XU1.R1_3 <X_U1.XA3.XU1.R_NOISELESS> (T_Current -273.15 T_Measured 27)
                              X_U1.XA3.XU1.R1_5 <X_U1.XA3.XU1.R_NOISELESS> (T_Current -273.15 T_Measured 27)
                                             X_U1.XA3.XU1.R2_1 <X_U1.XA3.XU1.R_NOISELESS> (T_Current -273.15 T_Measured 27)

          R        1.000E+04      1.000E+00      9.006E+01  


               X_U1.XA3.XU1.R2_3 <X_U1.XA3.XU1.R_NOISELESS> (T_Current -273.15 T_Measured 27)
                              X_U1.XA3.XU1.R3_A0 <X_U1.XA3.XU1.R_NOISELESS> (T_Current -273.15 T_Measured 27)
                                             X_U1.XA3.XU1.R3_A2 <X_U1.XA3.XU1.R_NOISELESS> (T_Current -273.15 T_Measured 27)

          R        3.279E+04      1.000E+06      1.000E+06  


               X_U1.XA3.XU1.R4_2 <X_U1.XA3.XU1.R_NOISELESS> (T_Current -273.15 T_Measured 27)
                              X_U1.XA3.XU1.R4_4 <X_U1.XA3.XU1.R_NOISELESS> (T_Current -273.15 T_Measured 27)
                                             X_U1.XA3.XU1.R4_A0 <X_U1.XA3.XU1.R_NOISELESS> (T_Current -273.15 T_Measured 27)

          R        3.200E+06      9.040E+03      1.000E+06  


               X_U1.XA3.XU1.R4_CC <X_U1.XA3.XU1.R_NOISELESS> (T_Current -273.15 T_Measured 27)
                              X_U1.XA3.XU1.R4_CL <X_U1.XA3.XU1.R_NOISELESS> (T_Current -273.15 T_Measured 27)
                                             X_U1.XA3.XU1.R4_VS <X_U1.XA3.XU1.R_NOISELESS> (T_Current -273.15 T_Measured 27)

          R        1.000E+03      1.000E+03      1.000E+03  


               X_U1.XA3.XU1.R5_2 <X_U1.XA3.XU1.R_NOISELESS> (T_Current -273.15 T_Measured 27)
                              X_U1.XA3.XU1.R5_4 <X_U1.XA3.XU1.R_NOISELESS> (T_Current -273.15 T_Measured 27)
                                             X_U1.XA3.XU1.R7_2 <X_U1.XA3.XU1.R_NOISELESS> (T_Current -273.15 T_Measured 27)

          R        1.000E+04      1.000E+04      1.000E+00  


               X_U1.XA3.XU1.R7_4 <X_U1.XA3.XU1.R_NOISELESS> (T_Current -273.15 T_Measured 27)
                              X_U1.XA3.XU1.R9_5 <X_U1.XA3.XU1.R_NOISELESS> (T_Current -273.15 T_Measured 27)
                                             X_U1.XA3.XU1.R10_5 <X_U1.XA3.XU1.R_NOISELESS> (T_Current -273.15 T_Measured 27)

          R        1.000E+00      1.000E+00      1.000E+04  


               X_U1.XA3.XU1.R11_5 <X_U1.XA3.XU1.R_NOISELESS> (T_Current -273.15 T_Measured 27)
                              X_U1.XA3.XU1.RDC_1 <X_U1.XA3.XU1.R_NOISELESS> (T_Current -273.15 T_Measured 27)
                                             X_U1.XA3.XU1.RDC_3 <X_U1.XA3.XU1.R_NOISELESS> (T_Current -273.15 T_Measured 27)

          R        1.267E-01      1.000E+00      1.000E+00  


               X_U1.XA3.XU1.RDUMMY <X_U1.XA3.XU1.R_NOISELESS> (T_Current -273.15 T_Measured 27)
                              X_U1.XA3.XU1.RX <X_U1.XA3.XU1.R_NOISELESS> (T_Current -273.15 T_Measured 27)
                                             X_U1.XA3.XU2.R2A <X_U1.XA3.XU2.R_NOISELESS> (T_Current -273.15 T_Measured 27)

          R        3.834E+04      3.834E+05      3.001E+04  


               X_U1.XA3.XU2.R2B <X_U1.XA3.XU2.R_NOISELESS> (T_Current -273.15 T_Measured 27)
                              X_U1.XA3.XU2.R48 <X_U1.XA3.XU2.R_NOISELESS> (T_Current -273.15 T_Measured 27)
                                             X_U1.XA3.XU2.R49 <X_U1.XA3.XU2.R_NOISELESS> (T_Current -273.15 T_Measured 27)

          R        8.065E+05      1.000E+08      1.000E+00  


               X_U1.XA3.XU2.R73 <X_U1.XA3.XU2.R_NOISELESS> (T_Current -273.15 T_Measured 27)
                              X_U1.XA3.XU2.R74 <X_U1.XA3.XU2.R_NOISELESS> (T_Current -273.15 T_Measured 27)
                                             X_U1.XA3.XU2.RSRC <X_U1.XA3.XU2.R_NOISELESS> (T_Current -273.15 T_Measured 27)

          R        1.000E+08      1.000E+00      1.000E+00  


               X_U1.XA3.XU3.R2A <X_U1.XA3.XU3.R_NOISELESS> (T_Current -273.15 T_Measured 27)
                              X_U1.XA3.XU3.R2B <X_U1.XA3.XU3.R_NOISELESS> (T_Current -273.15 T_Measured 27)
                                             X_U1.XA3.XU3.R48 <X_U1.XA3.XU3.R_NOISELESS> (T_Current -273.15 T_Measured 27)

          R        5.714E+02      1.667E+07      1.000E+08  


               X_U1.XA3.XU3.R49 <X_U1.XA3.XU3.R_NOISELESS> (T_Current -273.15 T_Measured 27)
                              X_U1.XA3.XU3.R73 <X_U1.XA3.XU3.R_NOISELESS> (T_Current -273.15 T_Measured 27)
                                             X_U1.XA3.XU3.R74 <X_U1.XA3.XU3.R_NOISELESS> (T_Current -273.15 T_Measured 27)

          R        1.000E+00      1.000E+08      1.000E+00  


               X_U1.XA3.XU3.RSRC <X_U1.XA3.XU3.R_NOISELESS> (T_Current -273.15 T_Measured 27)

          R        1.000E+00  



Starting pseudo-transient algorithm.

INFO(ORPSIM-16594): To improve Pseudotransient Convergence and Performance, set following options to relax stabilization criteria for capacitor currents and inductor voltages: PTRANABSTOL=1e-5, PTRANVNTOL=1e-4

WARNING(ORPSIM-16534): Using high values of ITL4 for Speed Level > 0 may increase total simulation job time.

ERROR -- Convergence problem in DC sweep


  Last node voltages tried were:

 NODE   VOLTAGE     NODE   VOLTAGE     NODE   VOLTAGE     NODE   VOLTAGE


( 2.5V)    2.5001  ( VREF)    5.0000  (VSIG+)    2.5000  (VSIG-)    2.3684      

(N00824)    4.9539 (N00913)    2.5001 (N00917)    2.3764 (N01230)    2.5061     

(N01527)    2.4948 (X_U1.13)     .8781                   (X_U1.14) 878.1E-09    

(X_U1.15) 879.0E-09                   (X_U1.16)    5.0000                       

(X_U1.17)    5.0000                   (X_U2.19) 91.84E-06                       

(X_U2.20) 127.4E-06                   (X_U2.21) 108.2E-09                       

(X_U2.22)    2.5001                   (X_U2.23)    2.5060                       

(X_U2.24)   30.0150                   (X_U2.26)   29.0340                       

(X_U2.27)    2.4948                   (X_U2.30)    2.5061                       

(X_U2.31)     .0034                   (X_U2.32)     .0034                       

(X_U2.33) 103.5E-09                   (X_U2.34) 103.5E-09                       

(X_U2.35)    4.8903                   (X_U2.36)    4.8868                       

(X_U2.37)     .1121                   (X_U2.38)     .1121                       

(X_U2.39)    5.1127                   (X_U2.40)   -5.5072                       

(X_U2.41) 108.2E-09                   (X_U2.42) 108.2E-09                       

(X_U2.43)    4.8903                   (X_U2.44)     .1121                       

(X_U2.45)  112.0000                   (X_U2.46) -116.0000                       

(X_U2.47)    4.8973                   (X_U2.48) 108.2E-09                       

(X_U2.49) 108.2E-09                   (X_U2.50) 108.2E-09                       

(X_U2.51) 108.2E-09                   (X_U2.52) 108.2E-09                       

(X_U2.53) 108.2E-09                   (X_U2.54)    -.0169                       

(X_U2.55)    5.0046                   (X_U2.56)    -.0169                       

(X_U2.57)    5.0046                   (X_U2.58)    2.5119                       

(X_U2.59)    2.5096                   (X_U2.60)    2.5119                       

(X_U2.61)    2.5096                   (X_U2.62) 108.2E-09                       

(X_U2.63)     .0423                   (X_U2.64)    2.4948                       

(X_U2.65)    2.5250                   (X_U2.66)    2.5060                       

(X_U2.67)    4.8000                   (X_U2.68)   -1.0000                       

(X_U2.69)    2.5060                   (X_U2.70) 108.2E-09                       

(X_U2.71)    5.0000                   (X_U2.72) 1.102E-12                       

(X_U2.73)    2.5061                   (X_U2.74)    2.5061                       

(X_U2.75)    2.5060                   (X_U1.MID)     .8781                      

(X_U2.MID) 108.2E-09                  (X_U2.ESDn)    2.5001                     

(X_U2.ESDp)    2.5061                 (X_U2.VCLP)    2.5250                     

(X_U2.CLAMP)    4.8973                (X_U2.SW_OL) 108.2E-09                    

(X_U2.VCC_B) 1.102E-12                (X_U2.VEE_B)    5.0000                    

(X_U2.VIMON)     .0506                (X_U2.XU2.4) 108.2E-09                    

(X_U2.XU2.5) 108.2E-09                (X_U2.XU2.6) 108.2E-09                    

(X_U2.XU2.7) 104.0E-09                (X_U2.XU3.4) 5.202E-06                    

(X_U2.XU3.5) 127.5E-06                (X_U2.XU3.6) 127.5E-06                    

(X_U2.XU3.7)     .1959                (X_U2.XU4.4) 45.90E-06                    

(X_U2.XU4.5) 91.84E-06                (X_U2.XU4.6) 91.84E-06                    

(X_U2.XU4.7)     .5504                (X_U1.IN+_10)    2.5000                   

(X_U1.IN+_12)    2.3684               (X_U1.IN+_20)    3.4130                   

(X_U1.IN-_19)    2.7523               (X_U1.OUT_11)    4.9146                   

(X_U1.OUT_18)    -.0381               (X_U1.XA1.34)    2.3764                   

(X_U1.XA1.35)    2.3684               (X_U1.XA1.36)     .0300                   

(X_U1.XA1.37)    4.9700               (X_U1.XA1.43)     .8112                   

(X_U1.XA1.44)    -.0381               (X_U1.XA1.47)     .8781                   

(X_U1.XA1.48)     .9462               (X_U1.XA1.49)    2.3684                   

(X_U1.XA1.50)   48.8780               (X_U1.XA1.51)  -68.1220                   

(X_U1.XA1.52)  -68.1250               (X_U1.XA1.53)     .8781                   

(X_U1.XA1.54)     .9058               (X_U1.XA1.55)     .8781                   

(X_U1.XA1.56)     .9058               (X_U1.XA1.57)     .8781                   

(X_U1.XA1.58)     .9462               (X_U1.XA1.59)    1.8781                   

(X_U1.XA1.60)    2.3684               (X_U1.XA1.61)    -.1000                   

(X_U1.XA1.62)    5.1000               (X_U1.XA1.63)    2.3684                   

(X_U1.XA1.64)    2.3684               (X_U1.XA2.34)    2.5000                   

(X_U1.XA2.35)    2.5000               (X_U1.XA2.36)     .0300                   

(X_U1.XA2.37)    4.9700               (X_U1.XA2.43)     .9364                   

(X_U1.XA2.44)    4.9146               (X_U1.XA2.47)     .8781                   

(X_U1.XA2.48)     .8781               (X_U1.XA2.49)    2.5000                   

(X_U1.XA2.50)   48.8780               (X_U1.XA2.51)  -68.1220                   

(X_U1.XA2.52)    4.9224               (X_U1.XA2.53)     .8781                   

(X_U1.XA2.54)     .8781               (X_U1.XA2.55)     .8781                   

(X_U1.XA2.56)     .8781               (X_U1.XA2.57)     .8781                   

(X_U1.XA2.58)     .8781               (X_U1.XA2.59)     .8781                   

(X_U1.XA2.60)    2.5000               (X_U1.XA2.61)    -.1000                   

(X_U1.XA2.62)    5.1000               (X_U1.XA2.63)    2.5000                   

(X_U1.XA2.64)    2.5000               (X_U2.VOUT_S)    2.4950                   

(X_U2.VSENSE)    4.8973               (X_U2.Xe_n.3)    0.0000                   

(X_U2.Xe_n.4)    0.0000               (X_U2.Xe_n.5)    0.0000                   

(X_U2.Xe_n.6)    0.0000               (X_U2.Xe_n.7)     .8338                   

(X_U2.Xe_n.8)     .8338               (X_U1.XA3.206)    4.9573                  

(X_U1.XA3.207)    1.2675              (X_U1.XA3.208)    4.9539                  

(X_U1.XA3.211)    3.4130              (X_U1.XA3.212)    1.0884                  

(X_U1.XA3.213)    1.0884              (X_U1.XA3.214)     .8781                  

(X_U1.XA3.215)     .8781              (X_U1.XA3.216)   13.1580                  

(X_U1.XA3.217)   12.9470              (X_U1.XA3.218)   -3.0327                  

(X_U1.XA3.219)   -3.0327              (X_U1.XA3.220)    5.8781                  

(X_U1.XA3.221)  -10.1220              (X_U1.XA3.222)     .8781                  

(X_U1.XA3.223)     .8781              (X_U1.XA3.224)   13.1580                  

(X_U1.XA3.225)   -3.0327              (X_U1.XA3.226)   48.8780                  

(X_U1.XA3.227)  -68.1220              (X_U1.XA3.228)   13.1660                  

(X_U1.XA3.229)     .8781              (X_U1.XA3.230)     .8781                  

(X_U1.XA3.231)     .8781              (X_U1.XA3.232)     .8781                  

(X_U1.XA3.233)     .8781              (X_U1.XA3.234)     .8781                  

(X_U1.XA3.235)    4.9457              (X_U1.XA3.236)     .0300                  

(X_U1.XA3.237)    4.9457              (X_U1.XA3.238)     .0300                  

(X_U1.XA3.239)     .8863              (X_U1.XA3.240)     .8781                  

(X_U1.XA3.241)     .8863              (X_U1.XA3.242)     .8781                  

(X_U1.XA3.243)    1.8781              (X_U1.XA3.244)    3.4130                  

(X_U1.XA3.245)    -.1000              (X_U1.XA3.246)    5.1000                  

(X_U1.XA3.247)    3.4130              (X_U1.XA3.248)    3.4130                  

(X_U1.XA3.249)    3.4130              (X_U2.VCC_CLP)    -.0169                  

(X_U2.VEE_CLP)    5.0046              (X_U2.Xi_nn.3)    0.0000                  

(X_U2.Xi_nn.5)    0.0000              (X_U2.Xi_np.3)    0.0000                  

(X_U2.Xi_np.5)    0.0000              (X_U2.XU1.2_3)   70.2660                  

(X_U2.XU1.5_2)   78.7460              (X_U2.XU1.5_3) 22.59E-06                  

(X_U1.XA3.VCLP)    4.9573             (X_U2.CL_CLAMP)    2.5250                 

(X_U2.XU1.4_A0)     .5865             (X_U2.XU1.4_A2)   40.0150                 

(X_U2.XU1.net2)   78.7450             (X_U2.XU1.out2)    4.8969                 

(X_U2.XU1.out3)    4.8969             (X_U2.XU1.out4)    4.8969                 

(X_U2.XU1.out5)    4.8969             (X_U2.XU1.out6)    4.8969                 

(X_U1.XA1.IN_32)    5.0000            (X_U1.XA1.IN_33) 1.826E-12                

(X_U1.XA2.IN_32)    5.0000            (X_U1.XA2.IN_33) 1.826E-12                

(X_U2.XU1.outz1)   78.6980            (X_U2.XU1.outz2)   78.7380                

(X_U1.XA1.OUT_45)     .8781           (X_U1.XA1.OUT_46)     .8781               

(X_U1.XA1.XE_N.5)    0.0000           (X_U1.XA1.XU1.67)  -34.8460               

(X_U1.XA1.XU1.68)     .8777           (X_U1.XA1.XU1.69)  -34.8490               

(X_U1.XA1.XU1.70)  -34.8490           (X_U1.XA1.XU1.71)  -34.8500               

(X_U1.XA1.XU1.72)  -26.3950           (X_U1.XA1.XU1.73)  -34.7120               

(X_U1.XA1.XU1.74)  -34.7130           (X_U1.XA1.XU1.75)  -34.7100               

(X_U1.XA1.XU1.76)  -35.6220           (X_U1.XA1.XU1.77)  -34.8490               

(X_U1.XA1.XU2.82)     .8781           (X_U1.XA1.XU2.83)     .8781               

(X_U1.XA1.XU2.84)     .8918           (X_U1.XA1.XU2.85)     .8781               

(X_U1.XA1.XU3.78)     .8781           (X_U1.XA1.XU3.79)     .8781               

(X_U1.XA1.XU3.80)     .7244           (X_U1.XA1.XU3.81)     .8781               

(X_U1.XA2.OUT_45)     .8781           (X_U1.XA2.OUT_46)     .8781               

(X_U1.XA2.XE_N.5)    0.0000           (X_U1.XA2.XU1.67)   67.6300               

(X_U1.XA2.XU1.68)     .8790           (X_U1.XA2.XU1.69)   67.6360               

(X_U1.XA2.XU1.70)   67.6360           (X_U1.XA2.XU1.71)   67.6360               

(X_U1.XA2.XU1.72)   51.8390           (X_U1.XA2.XU1.73)   67.3800               

(X_U1.XA2.XU1.74)   67.3820           (X_U1.XA2.XU1.75)   67.3840               

(X_U1.XA2.XU1.76)   66.4690           (X_U1.XA2.XU1.77)   67.6360               

(X_U1.XA2.XU2.82)     .8781           (X_U1.XA2.XU2.83)     .8781               

(X_U1.XA2.XU2.84)     .8918           (X_U1.XA2.XU2.85)     .8781               

(X_U1.XA2.XU3.78)     .8781           (X_U1.XA2.XU3.79)     .8781               

(X_U1.XA2.XU3.80)     .7244           (X_U1.XA2.XU3.81)     .8781               

(X_U1.XA3.IN_187) 1.012E-12           (X_U1.XA3.IN_188)    5.0000               

(X_U1.XA3.XE_N.5)    0.0000           (X_U1.XA3.XU1.67)  145.1800               

(X_U1.XA3.XU1.68)     .8806           (X_U1.XA3.XU1.69)  145.2000               

(X_U1.XA3.XU1.70)  145.2000           (X_U1.XA3.XU1.71)  145.2100               

(X_U1.XA3.XU1.72)  111.0500           (X_U1.XA3.XU1.73)  144.6500               

(X_U1.XA3.XU1.74)  144.6500           (X_U1.XA3.XU1.75)  144.6500               

(X_U1.XA3.XU1.76)  146.3600           (X_U1.XA3.XU1.77)  195.0100               

(X_U1.XA3.XU2.82)     .8781           (X_U1.XA3.XU2.83)     .8781               

(X_U1.XA3.XU2.84)     .8918           (X_U1.XA3.XU2.85)     .8781               

(X_U1.XA3.XU3.78)     .8781           (X_U1.XA3.XU3.79)     .8781               

(X_U1.XA3.XU3.80)     .7244           (X_U1.XA3.XU3.81)     .8781               

(X_U2.CLAW_CLAMP)    2.5250           (X_U1.XA1.XI_NN.3)    0.0000              

(X_U1.XA1.XI_NN.5)    0.0000          (X_U1.XA1.XI_NP.3)    0.0000              

(X_U1.XA1.XI_NP.5)    0.0000          (X_U1.XA2.XI_NN.3)    0.0000              

(X_U1.XA2.XI_NN.5)    0.0000          (X_U1.XA2.XI_NP.3)    0.0000              

(X_U1.XA2.XI_NP.5)    0.0000          (X_U1.XA3.OUT_209)     .8781              

(X_U1.XA3.OUT_210)     .8781          (X_U1.XA3.VCC_CLP)    4.9457              

(X_U1.XA3.VEE_CLP)     .0300          (X_U1.XA3.XI_NN.3)    0.0000              

(X_U1.XA3.XI_NN.5)    0.0000          (X_U1.XA3.XI_NP.3)    0.0000              

(X_U1.XA3.XI_NP.5)    0.0000          (X_U1.XA1.CLAMP_28)  -68.1250             

(X_U1.XA1.CLAWN_21)     .9462         (X_U1.XA1.CLAWP_22)     .8781             

(X_U1.XA1.SW_OL_29)    1.8781         (X_U1.XA1.VIMON_24)     .8112             

(X_U1.XA2.CLAMP_28)    4.9224         (X_U1.XA2.CLAWN_21)     .8781             

(X_U1.XA2.CLAWP_22)     .8781         (X_U1.XA2.SW_OL_29)     .8781             

(X_U1.XA2.VIMON_24)     .9364         (X_U1.XA1.VOUT_S_23)    -.0381            

(X_U1.XA1.VSENSE_27)  -68.1250        (X_U1.XA1.ZO_OUT_40)    -.0381            

(X_U1.XA2.VOUT_S_23)    4.9145        (X_U1.XA2.VSENSE_27)    4.9224            

(X_U1.XA2.ZO_OUT_40)    4.9146        (X_U1.XA3.CLAMP_195)   13.1660            

(X_U1.XA3.SW_OL_196)    1.8781        (X_U1.XA3.VIMON_192)    1.1376            

(X_U1.XA1.AOL_INN_41)    2.3764       (X_U1.XA1.AOL_INP_42)    2.3684           

(X_U1.XA2.AOL_INN_41)    2.5000       (X_U1.XA2.AOL_INP_42)    2.5000           

(X_U1.XA3.VOUT_S_191)    4.9539       (X_U1.XA3.VSENSE_194)   13.1660           

(X_U1.XA3.ZO_OUT_203)    4.9539       (X_U1.XA1.CL_CLAMP_25)    -.0390          

(X_U1.XA1.XU1.4_A0_66)     .0805      (X_U1.XA1.XU1.OUT2_65)  -68.1250          

(X_U1.XA1.ZO_CLEFT_38)     .5523      (X_U1.XA2.CL_CLAMP_25)    4.9224          

(X_U1.XA2.XU1.4_A0_66)     .8772      (X_U1.XA2.XU1.OUT2_65)    4.9224          

(X_U1.XA2.ZO_CLEFT_38)    3.8198      (X_U1.XA3.AOL_INN_204)    2.7523          

(X_U1.XA3.AOL_INP_205)    3.4130      (X_U1.XA3.XU1.4_A0_66)   66.9490          

(X_U1.XA3.XU1.OUT2_65)   13.1660      (X_U1.XA1.ZO_CRIGHT_39)     .5523         

(X_U1.XA2.ZO_CRIGHT_39)    1.4635     (X_U1.XA3.CL_CLAMP_189)    4.9573         

(X_U1.XA3.ZO_CLEFT_201)    2.1766     (X_U1.XA1.CLAW_CLAMP_26)    -.0390        

(X_U1.XA2.CLAW_CLAMP_26)    4.9224    (X_U1.XA3.ZO_CRIGHT_202)    2.1765        

(X_U1.XA1.ESD_INA333N_30)    2.3764   (X_U1.XA1.ESD_INA333P_31)    2.3684       

(X_U1.XA2.ESD_INA333N_30)    2.5001   (X_U1.XA2.ESD_INA333P_31)    2.5000       

(X_U1.XA3.CLAW_CLAMP_193)    4.9573   (X_U1.XA3.ESD_INA333N_197)    2.7523      

(X_U1.XA3.ESD_INA333P_198)    3.4130  


  These voltages failed to converge:

    V(X_U2.24)                =     30.45V  \     30.02V
    V(X_U2.26)                =     29.47V  \     29.03V
    V(X_U2.63)                =   248.91mV  \    42.26mV
    V(X_U1.XA3.207)           =     1.176V  \     1.268V
    V(X_U1.XA3.ZO_CLEFT_201)  =     2.160V  \     2.177V
    V(X_U1.XA3.ZO_CRIGHT_202) =     2.160V  \     2.177V
    V(X_U2.XU1.outz1)         =     79.88V  \     78.70V
    V(X_U2.XU1.2_3)           =    279.70V  \     70.27V
    V(X_U2.XU1.5_3)           =    89.61uV  \    22.59uV
    V(X_U1.XA3.XU1.76)        =    144.50V  \    146.36V
    V(X_U1.XA3.XU1.77)        =    159.78V  \    195.01V

  These supply currents failed to converge:

    I(X_U1.E1)                =    15.64mA  \    43.56mA
    I(X_U2.E5)                =    4.106uA  \    2.079uA
    I(X_U2.E1)                =    8.170mA  \  -226.68mA
    I(X_U1.XA1.E5)            =   -16.25nA  \  -131.83nA
    I(X_U1.XA2.E5)            =   -13.03nA  \  -431.26nA
    I(X_U1.XA3.E5)            =    28.55nA  \    19.36nA
    I(X_U1.XV_OS1.E1)         =         0A  \  -465.66pA
    I(X_U1.XV_OS2.E1)         =    1.863nA  \  -465.66pA
    I(X_U2.Xe_n.E3)           =  -465.66pA  \  -931.32pA
    I(X_U1.XA1.XE_N.E3)       =  -349.25pA  \   232.83pA
    I(X_U1.XA2.XE_N.E3)       =  -116.42pA  \         0A
    I(V_Vref)                 =   -15.26mA  \  -165.24mA
    I(X_U2.V4)                =   248.91uA  \    42.26uA
    I(X_U1.XA3.V4)            =   297.52uA  \   389.42uA
    I(X_U2.H1)                =   -1.983mA  \    83.57uA
    I(X_U1.XA1.H1)            =   -14.90nA  \    96.92nA
    I(X_U1.XA2.H1)            =    1.390nA  \  -166.25nA
    I(X_U1.XA3.H1)            =  -380.68uA  \   -1.300mA

**** Interrupt ****
